New Line.LINE1 Bus1=P1 Bus2=P2 phases=3 Linecode=MT_150 Length=28 Units=m
New Line.LINE2 Bus1=P2 Bus2=P3 phases=3 Linecode=MT_150 Length=35 Units=m
New Line.LINE3 Bus1=P3 Bus2=P4 phases=3 Linecode=MT_150 Length=33 Units=m
New Line.LINE4 Bus1=P4 Bus2=P5 phases=3 Linecode=MT_150 Length=32 Units=m
New Line.LINE5 Bus1=P5 Bus2=P6 phases=3 Linecode=MT_150 Length=35 Units=m
New Line.LINE6 Bus1=P6 Bus2=P7 phases=3 Linecode=MT_150 Length=32 Units=m
New Line.LINE7 Bus1=P7 Bus2=P8 phases=3 Linecode=MT_150 Length=36 Units=m
New Line.LINE8 Bus1=P8 Bus2=P9 phases=3 Linecode=MT_150 Length=38 Units=m
New Line.LINE9 Bus1=P9 Bus2=P10 phases=3 Linecode=MT_150 Length=38 Units=m
New Line.LINE10 Bus1=P10 Bus2=P11 phases=3 Linecode=MT_150 Length=35 Units=m
New Line.LINE12 Bus1=P11 Bus2=P12 phases=3 Linecode=MT_150 Length=36 Units=m
New Line.LINE13 Bus1=P12 Bus2=P13 phases=3 Linecode=MT_150 Length=38 Units=m
New Line.LINE14 Bus1=P13 Bus2=P14 phases=3 Linecode=MT_150 Length=38 Units=m
New Line.LINE15 Bus1=P14 Bus2=P15 phases=3 Linecode=MT_150 Length=35 Units=m
New Line.LINE16 Bus1=P15 Bus2=P16 phases=3 Linecode=MT_150 Length=35 Units=m
New Line.LINE17 Bus1=P16 Bus2=P17 phases=3 Linecode=MT_150 Length=38 Units=m
New Line.LINE18 Bus1=P17 Bus2=P18 phases=3 Linecode=MT_150 Length=39 Units=m
New Line.LINE19 Bus1=P18 Bus2=P19 phases=3 Linecode=MT_150 Length=35 Units=m
New Line.LINE20 Bus1=P19 Bus2=P20 phases=3 Linecode=MT_150 Length=35 Units=m
New Line.LINE21 Bus1=P20 Bus2=P21 phases=3 Linecode=MT_150 Length=35 Units=m
New Line.LINE22 Bus1=P21 Bus2=P22 phases=3 Linecode=MT_150 Length=38 Units=m
New Line.LINE23 Bus1=P22 Bus2=P23 phases=3 Linecode=MT_150 Length=31 Units=m
New Line.LINE24 Bus1=P23 Bus2=P24 phases=3 Linecode=MT_150 Length=35 Units=m
New Line.LINE25 Bus1=P24 Bus2=P25 phases=3 Linecode=MT_150 Length=34 Units=m
New Line.LINE26 Bus1=P25 Bus2=P26 phases=3 Linecode=MT_150 Length=38 Units=m
New Line.LINE27 Bus1=P26 Bus2=P27 phases=3 Linecode=MT_150 Length=34 Units=m
New Line.LINE28 Bus1=P27 Bus2=P28 phases=3 Linecode=MT_150 Length=30 Units=m
New Line.LINE29 Bus1=P28 Bus2=P29 phases=3 Linecode=MT_150 Length=34 Units=m
New Line.LINE30 Bus1=P29 Bus2=P30 phases=3 Linecode=MT_150 Length=33 Units=m
New Line.LINE31 Bus1=P30 Bus2=P31 phases=3 Linecode=MT_150 Length=32 Units=m
New Line.LINE32 Bus1=P31 Bus2=P32 phases=3 Linecode=MT_150 Length=28 Units=m
New Line.LINE33 Bus1=P32 Bus2=P33 phases=3 Linecode=MT_150 Length=31 Units=m
New Line.LINE34 Bus1=P33 Bus2=P34 phases=3 Linecode=MT_150 Length=19 Units=m
New Line.LINE36 Bus1=P34 Bus2=P36 phases=3 Linecode=MT_150 Length=35 Units=m
New Line.LINE37 Bus1=P36 Bus2=P37 phases=3 Linecode=MT_150 Length=31 Units=m
New Line.LINE38 Bus1=P37 Bus2=P38 phases=3 Linecode=MT_150 Length=38 Units=m
New Line.LINE39 Bus1=P38 Bus2=P39 phases=3 Linecode=MT_150 Length=41 Units=m
New Line.LINE40 Bus1=P39 Bus2=P40 phases=3 Linecode=MT_150 Length=6  Units=m
New Line.LINE41 Bus1=P39 Bus2=P41 phases=3 Linecode=MT_150 Length=36 Units=m
New Line.LINE42 Bus1=P41 Bus2=P42 phases=3 Linecode=MT_150 Length=34 Units=m
New Line.LINE43 Bus1=P39 Bus2=P43 phases=3 Linecode=MT_50 Length=35 Units=m
New Line.LINE44 Bus1=P43 Bus2=P44 phases=3 Linecode=MT_50 Length=35 Units=m
New Line.LINE45 Bus1=P40 Bus2=P45 phases=3 Linecode=MT_50 Length=34 Units=m
New Line.LINE46 Bus1=P45 Bus2=P46 phases=3 Linecode=MT_50 Length=35 Units=m
New Line.LINE47 Bus1=P46 Bus2=P47 phases=3 Linecode=MT_50 Length=39 Units=m
New Line.LINE48 Bus1=P47 Bus2=P48 phases=3 Linecode=MT_50 Length=31 Units=m
New Line.LINE49 Bus1=P47 Bus2=P49 phases=3 Linecode=MT_50 Length=33 Units=m
New Line.LINE50 Bus1=P49 Bus2=P50 phases=3 Linecode=MT_50 Length=60 Units=m
New Line.LINE51 Bus1=P50 Bus2=P51 phases=3 Linecode=MT_50 Length=26 Units=m
New Line.LINE52 Bus1=P51 Bus2=P52 phases=3 Linecode=MT_50 Length=33 Units=m
New Line.LINE53 Bus1=P52 Bus2=P53 phases=3 Linecode=MT_50 Length=35 Units=m
New Line.LINE54 Bus1=P53 Bus2=P54 phases=3 Linecode=MT_50 Length=34 Units=m
New Line.LINE55 Bus1=P54 Bus2=P55 phases=3 Linecode=MT_50 Length=33 Units=m
New Line.LINE56 Bus1=P55 Bus2=P56 phases=3 Linecode=MT_50 Length=30 Units=m
New Line.LINE57 Bus1=P56 Bus2=P57 phases=3 Linecode=MT_50 Length=44 Units=m
New Line.LINE58 Bus1=P57 Bus2=P58 phases=3 Linecode=MT_50 Length=27 Units=m
New Line.LINE59 Bus1=P58 Bus2=P59 phases=3 Linecode=MT_150 Length=40 Units=m
New Line.LINE60 Bus1=P59 Bus2=P60 phases=3 Linecode=MT_150 Length=45 Units=m
New Line.LINE61 Bus1=P60 Bus2=P61 phases=3 Linecode=MT_150 Length=28 Units=m
New Line.LINE62 Bus1=P61 Bus2=P62 phases=3 Linecode=MT_150 Length=28 Units=m
New Line.LINE63 Bus1=P62 Bus2=P63 phases=3 Linecode=MT_150 Length=31 Units=m
New Line.LINE64 Bus1=P63 Bus2=P64 phases=3 Linecode=MT_150 Length=29 Units=m
New Line.LINE65 Bus1=P64 Bus2=P65 phases=3 Linecode=MT_150 Length=30 Units=m
New Line.LINE66 Bus1=P65 Bus2=P66 phases=3 Linecode=MT_150 Length=28 Units=m
New Line.LINE67 Bus1=P66 Bus2=P67 phases=3 Linecode=MT_150 Length=31 Units=m
New Line.LINE68 Bus1=P67 Bus2=P68 phases=3 Linecode=MT_150 Length=19 Units=m
New Line.LINE69 Bus1=P68 Bus2=P69 phases=3 Linecode=MT_150 Length=31 Units=m
New Line.LINE70 Bus1=P69 Bus2=P70 phases=3 Linecode=MT_150 Length=28 Units=m
New Line.LINE71 Bus1=P70 Bus2=P71 phases=3 Linecode=MT_150 Length=30 Units=m
New Line.LINE72 Bus1=P71 Bus2=P72 phases=3 Linecode=MT_150 Length=30 Units=m
New Line.LINE73 Bus1=P72 Bus2=P73 phases=3 Linecode=MT_150 Length=27 Units=m
New Line.LINE74 Bus1=P73 Bus2=P74 phases=3 Linecode=MT_150 Length=30 Units=m
New Line.LINE75 Bus1=P74 Bus2=P75 phases=3 Linecode=MT_150 Length=33 Units=m
New Line.LINE76 Bus1=P74 Bus2=P76 phases=3 Linecode=MT_150 Length=32 Units=m
New Line.LINE77 Bus1=P76 Bus2=P77 phases=3 Linecode=MT_150 Length=27 Units=m
New Line.LINE78 Bus1=P77 Bus2=P78 phases=3 Linecode=MT_150 Length=32 Units=m
New Line.LINE79 Bus1=P78 Bus2=P79 phases=3 Linecode=MT_150 Length=25 Units=m
New Line.LINE80 Bus1=P79 Bus2=P80 phases=3 Linecode=MT_150 Length=6  Units=m
New Line.LINE81 Bus1=P80 Bus2=P81 phases=3 Linecode=MT_150 Length=36 Units=m
New Line.LINE82 Bus1=P79 Bus2=P82 phases=3 Linecode=MT_150 Length=36 Units=m
New Line.LINE83 Bus1=P82 Bus2=P83 phases=3 Linecode=MT_150 Length=40 Units=m
New Line.LINE84 Bus1=P83 Bus2=P84 phases=3 Linecode=MT_150 Length=24 Units=m
New Line.LINE85 Bus1=P84 Bus2=P85 phases=3 Linecode=MT_150 Length=30 Units=m
New Line.LINE86 Bus1=P85 Bus2=P86 phases=3 Linecode=MT_150 Length=31 Units=m
New Line.LINE87 Bus1=P86 Bus2=P87 phases=3 Linecode=MT_150 Length=33 Units=m
New Line.LINE88 Bus1=P87 Bus2=P88 phases=3 Linecode=MT_150 Length=35 Units=m
New Line.LINE89 Bus1=P88 Bus2=P89 phases=3 Linecode=MT_150 Length=35 Units=m
New Line.LINE90 Bus1=P89 Bus2=P90 phases=3 Linecode=MT_150 Length=40 Units=m
New Line.LINE91 Bus1=P90 Bus2=P91 phases=3 Linecode=MT_150 Length=32 Units=m
New Line.LINE92 Bus1=P91 Bus2=P92 phases=3 Linecode=MT_150 Length=36 Units=m
New Line.LINE93 Bus1=P92 Bus2=P93 phases=3 Linecode=MT_150 Length=32 Units=m
New Line.LINE94 Bus1=P93 Bus2=P94 phases=3 Linecode=MT_150 Length=35 Units=m
New Line.LINE95 Bus1=P94 Bus2=P95 phases=3 Linecode=MT_150 Length=39 Units=m
New Line.LINE96 Bus1=P95 Bus2=P96 phases=3 Linecode=MT_150 Length=38 Units=m
New Line.LINE97 Bus1=P96 Bus2=P97 phases=3 Linecode=MT_150 Length=40 Units=m
New Line.LINE98 Bus1=P97 Bus2=P98 phases=3 Linecode=MT_150 Length=26 Units=m
New Line.LINE99 Bus1=P98 Bus2=P99 phases=3 Linecode=MT_150 Length=33 Units=m
New Line.LINE100 Bus1=P99 Bus2=P100 phases=3 Linecode=MT_150 Length=29  Units=m
New Line.LINE101 Bus1=P100 Bus2=P101 phases=3 Linecode=MT_150 Length=31 Units=m
New Line.LINE102 Bus1=P101 Bus2=P102 phases=3 Linecode=MT_150 Length=27 Units=m
New Line.LINE103 Bus1=P102 Bus2=P103 phases=3 Linecode=MT_150 Length=37 Units=m
New Line.LINE104 Bus1=P103 Bus2=P104 phases=3 Linecode=MT_150 Length=30 Units=m
New Line.LINE105 Bus1=P104 Bus2=P105 phases=3 Linecode=MT_150 Length=36 Units=m
New Line.LINE106 Bus1=P105 Bus2=P106 phases=3 Linecode=MT_150 Length=54 Units=m
New Line.LINE107 Bus1=P106 Bus2=P107 phases=3 Linecode=MT_150 Length=30 Units=m
New Line.LINE108 Bus1=P107 Bus2=P108 phases=3 Linecode=MT_150 Length=44 Units=m
New Line.LINE109 Bus1=P107 Bus2=P109 phases=3 Linecode=MT_150 Length=29 Units=m
New Line.LINE110 Bus1=P109 Bus2=P110 phases=3 Linecode=MT_150 Length=32 Units=m
New Line.LINE111 Bus1=P110 Bus2=P111 phases=3 Linecode=MT_150 Length=33 Units=m
New Line.LINE112 Bus1=P111 Bus2=P112 phases=3 Linecode=MT_150 Length=33 Units=m
New Line.LINE113 Bus1=P112 Bus2=P113 phases=3 Linecode=MT_150 Length=28 Units=m
New Line.LINE114 Bus1=P113 Bus2=P114 phases=3 Linecode=MT_150 Length=29 Units=m
New Line.LINE116 Bus1=P115 Bus2=P116 phases=3 Linecode=MT_150 Length=35 Units=m
New Line.LINE117 Bus1=P116 Bus2=P117 phases=3 Linecode=MT_50 Length=29 Units=m
New Line.LINE118 Bus1=P117 Bus2=P118 phases=3 Linecode=MT_50 Length=31 Units=m
New Line.LINE119 Bus1=P118 Bus2=P119 phases=3 Linecode=MT_50 Length=25 Units=m
New Line.LINE120 Bus1=P119 Bus2=P120 phases=3 Linecode=MT_50 Length=27 Units=m
New Line.LINE121 Bus1=P120 Bus2=P121 phases=3 Linecode=MT_50 Length=29 Units=m
New Line.LINE122 Bus1=P121 Bus2=P122 phases=3 Linecode=MT_50 Length=33 Units=m
New Line.LINE123 Bus1=P122 Bus2=P123 phases=3 Linecode=MT_50 Length=32 Units=m
New Line.LINE124 Bus1=P123 Bus2=P124 phases=3 Linecode=MT_50 Length=29 Units=m
New Line.LINE125 Bus1=P124 Bus2=P125 phases=3 Linecode=MT_50 Length=30 Units=m
New Line.LINE126 Bus1=P125 Bus2=P126 phases=3 Linecode=MT_50 Length=30 Units=m
New Line.LINE127 Bus1=P126 Bus2=P127 phases=3 Linecode=MT_50 Length=30 Units=m
New Line.LINE128 Bus1=P127 Bus2=P128 phases=3 Linecode=MT_50 Length=30 Units=m
New Line.LINE129 Bus1=P128 Bus2=P129 phases=3 Linecode=MT_50 Length=26 Units=m
New Line.LINE130 Bus1=P129 Bus2=P130 phases=3 Linecode=MT_50 Length=24 Units=m
New Line.LINE131 Bus1=P130 Bus2=P131 phases=3 Linecode=MT_50 Length=40 Units=m
New Line.LINE132 Bus1=P131 Bus2=P218 phases=3 Linecode=MT_50 Length=19 Units=m
New Line.LINE133 Bus1=P132 Bus2=P133 phases=3 Linecode=MT_150 Length=27 Units=m
New Line.LINE134 Bus1=P133 Bus2=P134 phases=3 Linecode=MT_150 Length=25 Units=m
New Line.LINE135 Bus1=P134 Bus2=P135 phases=3 Linecode=MT_150 Length=30 Units=m
New Line.LINE136 Bus1=P135 Bus2=P136 phases=3 Linecode=MT_150 Length=30 Units=m
New Line.LINE137 Bus1=P136 Bus2=P137 phases=3 Linecode=MT_150 Length=33 Units=m
New Line.LINE138 Bus1=P137 Bus2=P138 phases=3 Linecode=MT_150 Length=27 Units=m
New Line.LINE139 Bus1=P138 Bus2=P139 phases=3 Linecode=MT_150 Length=30 Units=m
New Line.LINE140 Bus1=P139 Bus2=P140 phases=3 Linecode=MT_150 Length=33 Units=m
New Line.LINE141 Bus1=P140 Bus2=P141 phases=3 Linecode=MT_150 Length=30 Units=m
New Line.LINE142 Bus1=P141 Bus2=P142 phases=3 Linecode=MT_150 Length=27 Units=m
New Line.LINE143 Bus1=P142 Bus2=P143 phases=3 Linecode=MT_150 Length=30 Units=m
New Line.LINE144 Bus1=P143 Bus2=P144 phases=3 Linecode=MT_150 Length=29 Units=m
New Line.LINE145 Bus1=P144 Bus2=P145 phases=3 Linecode=MT_150 Length=29 Units=m
New Line.LINE146 Bus1=P145 Bus2=P146 phases=3 Linecode=MT_150 Length=28 Units=m
New Line.LINE147 Bus1=P146 Bus2=P147 phases=3 Linecode=MT_150 Length=28 Units=m
New Line.LINE148 Bus1=P147 Bus2=P148 phases=3 Linecode=MT_150 Length=28 Units=m
New Line.LINE149 Bus1=P148 Bus2=P149 phases=3 Linecode=MT_150 Length=26 Units=m
New Line.LINE150 Bus1=P149 Bus2=P150 phases=3 Linecode=MT_150 Length=30 Units=m
New Line.LINE151 Bus1=P150 Bus2=P151 phases=3 Linecode=MT_150 Length=30 Units=m
New Line.LINE152 Bus1=P151 Bus2=P152 phases=3 Linecode=MT_150 Length=32 Units=m
New Line.LINE153 Bus1=P152 Bus2=P153 phases=3 Linecode=MT_150 Length=34 Units=m
New Line.LINE154 Bus1=P153 Bus2=P154 phases=3 Linecode=MT_150 Length=44 Units=m
New Line.LINE155 Bus1=P154 Bus2=P171 phases=3 Linecode=MT_150 Length=24 Units=m
New Line.LINE156 Bus1=P171 Bus2=P172 phases=3 Linecode=MT_150 Length=24 Units=m
New Line.LINE157 Bus1=P172 Bus2=P173 phases=3 Linecode=MT_150 Length=30 Units=m
New Line.LINE158 Bus1=P173 Bus2=P174 phases=3 Linecode=MT_150 Length=28 Units=m
New Line.LINE159 Bus1=P174 Bus2=P255 phases=3 Linecode=MT_150 Length=21 Units=m
New Line.LINE160 Bus1=P175 Bus2=P176 phases=3 Linecode=MT_150 Length=27 Units=m
New Line.LINE161 Bus1=P176 Bus2=P177 phases=3 Linecode=MT_150 Length=34 Units=m
New Line.LINE162 Bus1=P177 Bus2=P178 phases=3 Linecode=MT_150 Length=33 Units=m
New Line.LINE163 Bus1=P178 Bus2=P179 phases=3 Linecode=MT_150 Length=33 Units=m
New Line.LINE164 Bus1=P179 Bus2=P180 phases=3 Linecode=MT_150 Length=31 Units=m
New Line.LINE165 Bus1=P180 Bus2=P181 phases=3 Linecode=MT_150 Length=31 Units=m
New Line.LINE166 Bus1=P181 Bus2=P182 phases=3 Linecode=MT_150 Length=32 Units=m
New Line.LINE167 Bus1=P182 Bus2=P183 phases=3 Linecode=MT_150 Length=29 Units=m
New Line.LINE168 Bus1=P183 Bus2=P184 phases=3 Linecode=MT_150 Length=33 Units=m
New Line.LINE169 Bus1=P184 Bus2=P185 phases=3 Linecode=MT_150 Length=33 Units=m
New Line.LINE170 Bus1=P185 Bus2=P186 phases=3 Linecode=MT_150 Length=33 Units=m
New Line.LINE171 Bus1=P186 Bus2=P42 phases=3 Linecode=MT_150  Length=32 Units=m
New Line.LINE172 Bus1=P44  Bus2=P187 phases=3 Linecode=MT_50  Length=34 Units=m
New Line.LINE173 Bus1=P187 Bus2=P188 phases=3 Linecode=MT_50 Length=38 Units=m
New Line.LINE174 Bus1=P188 Bus2=P189 phases=3 Linecode=MT_50 Length=38 Units=m
New Line.LINE175 Bus1=P189 Bus2=P190 phases=3 Linecode=MT_50 Length=26 Units=m
New Line.LINE177 Bus1=P191 Bus2=P192 phases=3 Linecode=MT_50 Length=28 Units=m
New Line.LINE178 Bus1=P192 Bus2=P193 phases=3 Linecode=MT_50 Length=28 Units=m
New Line.LINE179 Bus1=P193 Bus2=P194 phases=3 Linecode=MT_50 Length=24 Units=m
New Line.LINE180 Bus1=P194 Bus2=P195 phases=3 Linecode=MT_50 Length=30 Units=m
New Line.LINE181 Bus1=P195 Bus2=P196 phases=3 Linecode=MT_50 Length=22 Units=m
New Line.LINE182 Bus1=P196 Bus2=P197 phases=3 Linecode=MT_50 Length=25 Units=m
New Line.LINE183 Bus1=P197 Bus2=P198 phases=3 Linecode=MT_50 Length=45 Units=m
New Line.LINE184 Bus1=P198 Bus2=P199 phases=3 Linecode=MT_50 Length=35 Units=m
New Line.LINE185 Bus1=P199 Bus2=P200 phases=3 Linecode=MT_50 Length=25 Units=m
New Line.LINE186 Bus1=P200 Bus2=P201 phases=3 Linecode=MT_50 Length=29 Units=m
New Line.LINE187 Bus1=P201 Bus2=P202 phases=3 Linecode=MT_50 Length=33 Units=m
New Line.LINE188 Bus1=P202 Bus2=P203 phases=3 Linecode=MT_50 Length=25 Units=m
New Line.LINE189 Bus1=P203 Bus2=P204 phases=3 Linecode=MT_50 Length=22 Units=m
New Line.LINE190 Bus1=P204 Bus2=P205 phases=3 Linecode=MT_50 Length=43 Units=m
New Line.LINE191 Bus1=P205 Bus2=P206 phases=3 Linecode=MT_50 Length=33 Units=m
New Line.LINE192 Bus1=P206 Bus2=P207 phases=3 Linecode=MT_50 Length=43 Units=m
New Line.LINE193 Bus1=P207 Bus2=P208 phases=3 Linecode=MT_50 Length=43 Units=m
New Line.LINE194 Bus1=P208 Bus2=P209 phases=3 Linecode=MT_50 Length=42 Units=m
New Line.LINE195 Bus1=P209 Bus2=P210 phases=3 Linecode=MT_50 Length=40 Units=m
New Line.LINE196 Bus1=P211 Bus2=P210 phases=3 Linecode=MT_50 Length=41 Units=m
New Line.LINE197 Bus1=P211 Bus2=P212 phases=3 Linecode=MT_50 Length=26 Units=m
New Line.LINE198 Bus1=P212 Bus2=P213 phases=3 Linecode=MT_50 Length=35 Units=m
New Line.LINE199 Bus1=P213 Bus2=P214 phases=3 Linecode=MT_50 Length=35 Units=m
New Line.LINE200 Bus1=P214 Bus2=P215 phases=3 Linecode=MT_50 Length=33 Units=m
New Line.LINE201 Bus1=P215 Bus2=P216 phases=3 Linecode=MT_50 Length=31 Units=m
New Line.LINE202 Bus1=P197 Bus2=P217 phases=3 Linecode=MT_50 Length=38 Units=m
New Line.LINE203 Bus1=P217 Bus2=P48 phases=3 Linecode=MT_50 Length=33 Units=m
New Line.LINE204 Bus1=P58 Bus2=P165 phases=3 Linecode=MT_150  Length=29 Units=m
New Line.LINE205 Bus1=P165 Bus2=P166 phases=3 Linecode=MT_150 Length=35 Units=m
New Line.LINE206 Bus1=P166 Bus2=P167 phases=3 Linecode=MT_150 Length=43 Units=m
New Line.LINE207 Bus1=P167 Bus2=P168 phases=3 Linecode=MT_150 Length=31 Units=m
New Line.LINE208 Bus1=P168 Bus2=P169 phases=3 Linecode=MT_150 Length=31 Units=m
New Line.LINE210 Bus1=P75 Bus2=P164 phases=3 Linecode=MT_150  Length=38 Units=m
New Line.LINE211 Bus1=P164 Bus2=P163 phases=3 Linecode=MT_150 Length=40 Units=m
New Line.LINE212 Bus1=P163 Bus2=P162 phases=3 Linecode=MT_150 Length=29 Units=m
New Line.LINE213 Bus1=P162 Bus2=P161 phases=3 Linecode=MT_150 Length=34 Units=m
New Line.LINE214 Bus1=P161 Bus2=P160 phases=3 Linecode=MT_150 Length=44 Units=m
New Line.LINE215 Bus1=P160 Bus2=P159 phases=3 Linecode=MT_150 Length=31 Units=m
New Line.LINE216 Bus1=P159 Bus2=P158 phases=3 Linecode=MT_150 Length=31 Units=m
New Line.LINE219 Bus1=P222 Bus2=P221 phases=3 Linecode=MT_150 Length=34 Units=m
New Line.LINE220 Bus1=P221 Bus2=P220 phases=3 Linecode=MT_150 Length=31 Units=m
New Line.LINE221 Bus1=P220 Bus2=P219 phases=3 Linecode=MT_150 Length=29 Units=m
New Line.LINE222 Bus1=P219 Bus2=P218 phases=3 Linecode=MT_150 Length=28 Units=m
New Line.LINE223 Bus1=P218 Bus2=P132 phases=3 Linecode=MT_150 Length=20 Units=m
New Line.LINE224 Bus1=P223 Bus2=P224 phases=3 Linecode=MT_150 Length=30 Units=m
New Line.LINE225 Bus1=P224 Bus2=P225 phases=3 Linecode=MT_150 Length=31 Units=m
New Line.LINE226 Bus1=P225 Bus2=P227 phases=3 Linecode=MT_150 Length=24 Units=m
New Line.LINE227 Bus1=P227 Bus2=P228 phases=3 Linecode=MT_150 Length=22 Units=m
New Line.LINE228 Bus1=P228 Bus2=P229 phases=3 Linecode=MT_150 Length=28 Units=m
New Line.LINE229 Bus1=P229 Bus2=P230 phases=3 Linecode=MT_150 Length=42 Units=m
New Line.LINE230 Bus1=P230 Bus2=P231 phases=3 Linecode=MT_150 Length=34 Units=m
New Line.LINE231 Bus1=P231 Bus2=P232 phases=3 Linecode=MT_50 Length=30 Units=m
New Line.LINE232 Bus1=P232 Bus2=P233 phases=3 Linecode=MT_50 Length=24 Units=m
New Line.LINE233 Bus1=P233 Bus2=P234 phases=3 Linecode=MT_150 Length=31 Units=m
New Line.LINE234 Bus1=P234 Bus2=P235 phases=3 Linecode=MT_150 Length=30 Units=m
New Line.LINE235 Bus1=P235 Bus2=P236 phases=3 Linecode=MT_150 Length=35 Units=m
New Line.LINE236 Bus1=P232 Bus2=P237 phases=3 Linecode=MT_50 Length=22 Units=m
New Line.LINE237 Bus1=P237 Bus2=P238 phases=3 Linecode=MT_50 Length=40 Units=m
New Line.LINE238 Bus1=P238 Bus2=P239 phases=3 Linecode=MT_50 Length=41 Units=m
New Line.LINE239 Bus1=P239 Bus2=P240 phases=3 Linecode=MT_50 Length=28 Units=m
New Line.LINE240 Bus1=P240 Bus2=P241 phases=3 Linecode=MT_50 Length=32 Units=m
New Line.LINE241 Bus1=P241 Bus2=P242 phases=3 Linecode=MT_50 Length=19 Units=m
New Line.LINE242 Bus1=P190 Bus2=P243 phases=3 Linecode=MT_150 Length=31 Units=m
New Line.LINE243 Bus1=P243 Bus2=P244 phases=3 Linecode=MT_150 Length=25 Units=m
New Line.LINE244 Bus1=P244 Bus2=P245 phases=3 Linecode=MT_150 Length=35 Units=m
New Line.LINE245 Bus1=P245 Bus2=P246 phases=3 Linecode=MT_150 Length=29 Units=m
New Line.LINE246 Bus1=P193 Bus2=P247 phases=3 Linecode=MT_150 Length=25 Units=m
New Line.LINE247 Bus1=P247 Bus2=P248 phases=3 Linecode=MT_150 Length=32 Units=m
New Line.LINE248 Bus1=P248 Bus2=P249 phases=3 Linecode=MT_150 Length=34 Units=m
New Line.LINE249 Bus1=P249 Bus2=P250 phases=3 Linecode=MT_150 Length=35 Units=m
New Line.LINE250 Bus1=P250 Bus2=P251 phases=3 Linecode=MT_150 Length=35 Units=m
New Line.LINE251 Bus1=P251 Bus2=P252 phases=3 Linecode=MT_150 Length=34 Units=m
New Line.LINE252 Bus1=P252 Bus2=P253 phases=3 Linecode=MT_150 Length=33 Units=m
New Line.LINE253 Bus1=P253 Bus2=P254 phases=3 Linecode=MT_150 Length=33 Units=m
New Line.LINE254 Bus1=P68 Bus2=P223 phases=3 Linecode=MT_150 Length=29 Units=m
New Line.LINE255 Bus1=P255 Bus2=P175 phases=3 Linecode=MT_150 Length=10 Units=m
New Line.LINE256 Bus1=P255 Bus2=P256 phases=3 Linecode=MT_150 Length=10 Units=m
New Line.LINE257 Bus1=P255 Bus2=P257 phases=3 Linecode=MT_150 Length=23 Units=m
New Line.LINE258 Bus1=P154 Bus2=P155 phases=3 Linecode=MT_150 Length=31 Units=m
New Line.LINE259 Bus1=P148 Bus2=P258 phases=3 Linecode=MT_150 Length=30 Units=m
New Line.LINE260 Bus1=P258 Bus2=P259 phases=3 Linecode=MT_150 Length=30 Units=m
New Line.LINE261 Bus1=P256 Bus2=P260 phases=3 Linecode=MT_150 Length=30 Units=m
New Line.LINE262 Bus1=P260 Bus2=P261 phases=3 Linecode=MT_150 Length=35 Units=m
New Line.LINE274 Bus1=P157 Bus2=P154 phases=3 Linecode=MT_150 Length=30 Units=m
New Line.LINE275 Bus1=P170 Bus2=P171 phases=3 Linecode=MT_150 Length=35 Units=m
New Line.LINE500 Bus1=P259 Bus2=P271 phases=3 Linecode=MT_150 Length=33 Units=m
New Line.LINE501 Bus1=P271 Bus2=P272 phases=3 Linecode=MT_150 Length=35 Units=m
New Line.LINE502 Bus1=P272 Bus2=P273 phases=3 Linecode=MT_150 Length=35 Units=m
New Line.LINE503 Bus1=P273 Bus2=P274 phases=3 Linecode=MT_150 Length=35 Units=m
New Line.LINE504 Bus1=P274 Bus2=P275 phases=3 Linecode=MT_150 Length=35 Units=m
New Line.LINE505 Bus1=P275 Bus2=P276 phases=3 Linecode=MT_150 Length=35 Units=m
New Line.LINE506 Bus1=P276 Bus2=P277 phases=3 Linecode=MT_150 Length=35 Units=m
New Line.LINE507 Bus1=P277 Bus2=P278 phases=3 Linecode=MT_150 Length=35 Units=m
New Line.LINE509 Bus1=P279 Bus2=P280 phases=3 Linecode=MT_150 Length=35 Units=m
New Line.LINE510 Bus1=P280 Bus2=P281 phases=3 Linecode=MT_150 Length=35 Units=m
New Line.LINE511 Bus1=P281 Bus2=P282 phases=3 Linecode=MT_150 Length=35 Units=m
New Line.LINE512 Bus1=P282 Bus2=P283 phases=3 Linecode=MT_150 Length=35 Units=m
New Line.LINE513 Bus1=P283 Bus2=P284 phases=3 Linecode=MT_150 Length=35 Units=m
New Line.LINE514 Bus1=P284 Bus2=P285 phases=3 Linecode=MT_150 Length=35 Units=m
New Line.LINE515 Bus1=P285 Bus2=P286 phases=3 Linecode=MT_150 Length=35 Units=m
New Line.LINE516 Bus1=P286 Bus2=P287 phases=3 Linecode=MT_150 Length=35 Units=m
New Line.LINE517 Bus1=P287 Bus2=P288 phases=3 Linecode=MT_150 Length=35 Units=m
New Line.LINE518 Bus1=P288 Bus2=P289 phases=3 Linecode=MT_150 Length=35 Units=m
New Line.LINE519 Bus1=P289 Bus2=P290 phases=3 Linecode=MT_150 Length=35 Units=m
New Line.LINE520 Bus1=P289 Bus2=P291 phases=3 Linecode=MT_150 Length=35 Units=m
New Line.LINE521 Bus1=P291 Bus2=P292 phases=3 Linecode=MT_150 Length=35 Units=m
New Line.LINE523 Bus1=P293 Bus2=P295 phases=3 Linecode=MT_50 Length=34 Units=m
New Line.LINE524 Bus1=P293 Bus2=P303 phases=3 Linecode=MT_50 Length=31 Units=m
New Line.LINE525 Bus1=P295 Bus2=P296 phases=3 Linecode=MT_50 Length=34 Units=m
New Line.LINE526 Bus1=P296 Bus2=P297 phases=3 Linecode=MT_50 Length=37 Units=m
New Line.LINE527 Bus1=P297 Bus2=P298 phases=3 Linecode=MT_50 Length=33 Units=m
New Line.LINE529 Bus1=P350 Bus2=P351 phases=3 Linecode=MT_50 Length=37 Units=m
New Line.LINE530 Bus1=P351 Bus2=P352 phases=3 Linecode=MT_50 Length=36 Units=m
New Line.LINE531 Bus1=P352 Bus2=P353 phases=3 Linecode=MT_50 Length=30 Units=m
New Line.LINE532 Bus1=P353 Bus2=P354 phases=3 Linecode=MT_50 Length=33 Units=m
New Line.LINE533 Bus1=P354 Bus2=P355 phases=3 Linecode=MT_50 Length=33 Units=m
New Line.LINE534 Bus1=P355 Bus2=P356 phases=3 Linecode=MT_50 Length=29 Units=m
New Line.LINE535 Bus1=P356 Bus2=P357 phases=3 Linecode=MT_50 Length=31 Units=m
New Line.LINE536 Bus1=P303 Bus2=P304 phases=3 Linecode=MT_150 Length=31 Units=m
New Line.LINE537 Bus1=P304 Bus2=P305 phases=3 Linecode=MT_150 Length=34 Units=m
New Line.LINE538 Bus1=P305 Bus2=P306 phases=3 Linecode=MT_150 Length=37 Units=m
New Line.LINE539 Bus1=P306 Bus2=P307 phases=3 Linecode=MT_150 Length=36 Units=m
New Line.LINE540 Bus1=P307 Bus2=P308 phases=3 Linecode=MT_150 Length=36 Units=m
New Line.LINE541 Bus1=P308 Bus2=P315 phases=3 Linecode=MT_150 Length=37 Units=m
New Line.LINE542 Bus1=P315 Bus2=P316 phases=3 Linecode=MT_150 Length=34 Units=m
New Line.LINE543 Bus1=P316 Bus2=P317 phases=3 Linecode=MT_150 Length=36 Units=m
New Line.LINE544 Bus1=P317 Bus2=P321 phases=3 Linecode=MT_150 Length=39 Units=m
New Line.LINE545 Bus1=P321 Bus2=P155 phases=3 Linecode=MT_150 Length=34 Units=m
New Line.LINE546 Bus1=P279 Bus2=P360 phases=3 Linecode=MT_150 Length=35 Units=m
New Line.LINE547 Bus1=P360 Bus2=P361 phases=3 Linecode=MT_150 Length=34 Units=m
New Line.LINE548 Bus1=P361 Bus2=P362 phases=3 Linecode=MT_150 Length=35 Units=m
New Line.LINE549 Bus1=P362 Bus2=P363 phases=3 Linecode=MT_150 Length=37 Units=m
New Line.LINE550 Bus1=P363 Bus2=P364 phases=3 Linecode=MT_150 Length=31 Units=m
New Line.LINE551 Bus1=P364 Bus2=P365 phases=3 Linecode=MT_150 Length=37 Units=m
New Line.LINE553 Bus1=P322 Bus2=P320 phases=3 Linecode=MT_150 Length=33 Units=m
New Line.LINE554 Bus1=P320 Bus2=P319 phases=3 Linecode=MT_150 Length=36 Units=m
New Line.LINE555 Bus1=P319 Bus2=P318 phases=3 Linecode=MT_150 Length=37 Units=m
New Line.LINE556 Bus1=P318 Bus2=P314 phases=3 Linecode=MT_150 Length=34 Units=m
New Line.LINE557 Bus1=P314 Bus2=P313 phases=3 Linecode=MT_150 Length=31 Units=m
New Line.LINE558 Bus1=P313 Bus2=P312 phases=3 Linecode=MT_150 Length=30 Units=m
New Line.LINE559 Bus1=P312 Bus2=P311 phases=3 Linecode=MT_150 Length=34 Units=m
New Line.LINE560 Bus1=P311 Bus2=P310 phases=3 Linecode=MT_150 Length=35 Units=m
New Line.LINE561 Bus1=P310 Bus2=P309 phases=3 Linecode=MT_150 Length=39 Units=m
New Line.LINE562 Bus1=P309 Bus2=P299 phases=3 Linecode=MT_150 Length=33 Units=m
New Line.LINE563 Bus1=P299 Bus2=P300 phases=3 Linecode=MT_150 Length=29 Units=m
New Line.LINE564 Bus1=P300 Bus2=P301 phases=3 Linecode=MT_150 Length=33 Units=m
New Line.LINE565 Bus1=P301 Bus2=P302 phases=3 Linecode=MT_150 Length=37 Units=m
New Line.LINE566 Bus1=P302 Bus2=P358 phases=3 Linecode=MT_150 Length=32 Units=m
New Line.LINE567 Bus1=P358 Bus2=P359 phases=3 Linecode=MT_150 Length=34 Units=m
New Line.LINE568 Bus1=P359 Bus2=P352 phases=3 Linecode=MT_150 Length=31 Units=m
New Line.LINE569 Bus1=P299 Bus2=P323 phases=3 Linecode=MT_150 Length=32 Units=m
New Line.LINE570 Bus1=P323 Bus2=P324 phases=3 Linecode=MT_150 Length=32 Units=m
New Line.LINE571 Bus1=P324 Bus2=P325 phases=3 Linecode=MT_150 Length=37 Units=m
New Line.LINE572 Bus1=P325 Bus2=P326 phases=3 Linecode=MT_150 Length=37 Units=m
New Line.LINE573 Bus1=P326 Bus2=P327 phases=3 Linecode=MT_150 Length=35 Units=m
New Line.LINE574 Bus1=P327 Bus2=P328 phases=3 Linecode=MT_150 Length=34 Units=m
New Line.LINE575 Bus1=P328 Bus2=P329 phases=3 Linecode=MT_150 Length=32 Units=m
New Line.LINE576 Bus1=P329 Bus2=P330 phases=3 Linecode=MT_150 Length=27 Units=m
New Line.LINE577 Bus1=P330 Bus2=P331 phases=3 Linecode=MT_150 Length=29 Units=m
New Line.LINE578 Bus1=P331 Bus2=P332 phases=3 Linecode=MT_150 Length=30 Units=m
New Line.LINE579 Bus1=P332 Bus2=P333 phases=3 Linecode=MT_150 Length=28 Units=m
New Line.LINE580 Bus1=P333 Bus2=P334 phases=3 Linecode=MT_150 Length=32 Units=m
New Line.LINE581 Bus1=P334 Bus2=P261 phases=3 Linecode=MT_150 Length=31 Units=m
New Line.LINE582 Bus1=P257 Bus2=P346 phases=3 Linecode=MT_150 Length=29 Units=m
New Line.LINE583 Bus1=P346 Bus2=P347 phases=3 Linecode=MT_150 Length=30 Units=m
New Line.LINE584 Bus1=P347 Bus2=P348 phases=3 Linecode=MT_150 Length=33 Units=m
New Line.LINE585 Bus1=P348 Bus2=P349 phases=3 Linecode=MT_150 Length=32 Units=m
New Line.LINE586 Bus1=P327 Bus2=P335 phases=3 Linecode=MT_50 Length=33 Units=m
New Line.LINE587 Bus1=P335 Bus2=P336 phases=3 Linecode=MT_50 Length=28 Units=m
New Line.LINE588 Bus1=P336 Bus2=P337 phases=3 Linecode=MT_50 Length=29 Units=m
New Line.LINE589 Bus1=P337 Bus2=P338 phases=3 Linecode=MT_50 Length=29 Units=m
New Line.LINE590 Bus1=P338 Bus2=P339 phases=3 Linecode=MT_50 Length=28 Units=m
New Line.LINE591 Bus1=P339 Bus2=P340 phases=3 Linecode=MT_50 Length=31 Units=m
New Line.LINE592 Bus1=P340 Bus2=P341 phases=3 Linecode=MT_50 Length=34 Units=m
New Line.LINE593 Bus1=P341 Bus2=P342 phases=3 Linecode=MT_50 Length=35 Units=m
New Line.LINE594 Bus1=P342 Bus2=P343 phases=3 Linecode=MT_50 Length=34 Units=m
New Line.LINE595 Bus1=P343 Bus2=P344 phases=3 Linecode=MT_50 Length=34 Units=m
New Line.LINE596 Bus1=P344 Bus2=P345 phases=3 Linecode=MT_50 Length=31 Units=m
New Line.LINE597 Bus1=P357 Bus2=P366 phases=3 Linecode=MT_50 Length=31 Units=m
New Line.LINE598 Bus1=P366 Bus2=P367 phases=3 Linecode=MT_50 Length=28 Units=m
New Line.LINE599 Bus1=P367 Bus2=P368 phases=3 Linecode=MT_50 Length=33 Units=m
New Line.LINE600 Bus1=P368 Bus2=P369 phases=3 Linecode=MT_50 Length=30 Units=m
New Line.LINE601 Bus1=P369 Bus2=P370 phases=3 Linecode=MT_50 Length=30 Units=m
New Line.LINE602 Bus1=P370 Bus2=P371 phases=3 Linecode=MT_50 Length=31 Units=m
New Line.LINE603 Bus1=P371 Bus2=P372 phases=3 Linecode=MT_50 Length=29 Units=m
New Line.LINE604 Bus1=P372 Bus2=P373 phases=3 Linecode=MT_50 Length=27 Units=m
New Line.LINE605 Bus1=P373 Bus2=P374 phases=3 Linecode=MT_50 Length=33 Units=m
New Line.LINE606 Bus1=P374 Bus2=P375 phases=3 Linecode=MT_50 Length=31 Units=m
New Line.LINE607 Bus1=P375 Bus2=P376 phases=3 Linecode=MT_50 Length=32 Units=m
New Line.LINE608 Bus1=P376 Bus2=P377 phases=3 Linecode=MT_50 Length=36 Units=m
New Line.LINE609 Bus1=P377 Bus2=P378 phases=3 Linecode=MT_50 Length=38 Units=m
New Line.LINE610 Bus1=P378 Bus2=P379 phases=3 Linecode=MT_50 Length=35 Units=m
New Line.LINE611 Bus1=P379 Bus2=P380 phases=3 Linecode=MT_50 Length=35 Units=m
New Line.LINE612 Bus1=P380 Bus2=P381 phases=3 Linecode=MT_50 Length=34 Units=m
New Line.LINE613 Bus1=P381 Bus2=P382 phases=3 Linecode=MT_50 Length=36 Units=m
New Line.LINE614 Bus1=P382 Bus2=P383 phases=3 Linecode=MT_50 Length=36 Units=m
New Line.LINE615 Bus1=P383 Bus2=P384 phases=3 Linecode=MT_50 Length=35 Units=m
New Line.LINE616 Bus1=P384 Bus2=P385 phases=3 Linecode=MT_50 Length=35 Units=m
New Line.LINE617 Bus1=P385 Bus2=P386 phases=3 Linecode=MT_50 Length=33 Units=m
New Line.LINE618 Bus1=P386 Bus2=P387 phases=3 Linecode=MT_50 Length=35 Units=m
New Line.LINE619 Bus1=P387 Bus2=P388 phases=3 Linecode=MT_50 Length=34 Units=m
New Line.LINE620 Bus1=P388 Bus2=P389 phases=3 Linecode=MT_50 Length=35 Units=m
New Line.LINE621 Bus1=P389 Bus2=P390 phases=3 Linecode=MT_50 Length=39 Units=m